<?xml version="1.0" encoding="UTF-8"?>

<!-- generated on 2026-03-24T17:23:56.978336+05:30 by Eclipse SUMO netedit 1.26.0
<neteditConfiguration xmlns:xsi="http://www.w3.org/2001/XMLSchema-instance" xsi:noNamespaceSchemaLocation="http://sumo.dlr.de/xsd/neteditConfiguration.xsd">

    <input>
        <sumo-net-file value="C:\Users\monar\Downloads\NexusPro_TrafficSim\config\map.net.xml"/>
    </input>

    <output>
        <output-file value="C:\Users\monar\Downloads\NexusPro_TrafficSim\config\map.net.xml"/>
    </output>

    <processing>
        <offset.disable-normalization value="true"/>
    </processing>

    <junctions>
        <no-turnarounds value="true"/>
    </junctions>

    <netedit>
        <new-network value="false"/>
    </netedit>

</neteditConfiguration>
-->

<net version="1.20" junctionCornerDetail="5" limitTurnSpeed="5.50" xmlns:xsi="http://www.w3.org/2001/XMLSchema-instance" xsi:noNamespaceSchemaLocation="http://sumo.dlr.de/xsd/net_file.xsd">

    <location netOffset="0.00,0.00" convBoundary="-49.88,-39.58,49.26,35.08" origBoundary="10000000000.00,10000000000.00,-10000000000.00,-10000000000.00" projParameter="!"/>

    <edge id=":J4_0" function="internal">
        <lane id=":J4_0_0" index="0" speed="6.52" length="9.08" shape="-14.80,13.41 -15.16,10.95 -16.22,9.20 -17.98,8.15 -20.45,7.80"/>
    </edge>
    <edge id=":J4_1" function="internal">
        <lane id=":J4_1_0" index="0" speed="13.89" length="27.25" shape="-14.80,13.41 -14.92,-13.82"/>
        <lane id=":J4_1_1" index="1" speed="13.89" length="27.25" shape="-11.60,13.41 -11.72,-13.84"/>
        <lane id=":J4_1_2" index="2" speed="13.89" length="27.25" shape="-8.40,13.40 -8.52,-13.87"/>
    </edge>
    <edge id=":J4_4" function="internal">
        <lane id=":J4_4_0" index="0" speed="10.36" length="4.91" shape="-8.40,13.40 -7.71,8.55"/>
    </edge>
    <edge id=":J4_20" function="internal">
        <lane id=":J4_20_0" index="0" speed="10.36" length="19.64" shape="-7.71,8.55 -7.46,6.74 -4.61,1.98 0.15,-0.86 6.82,-1.80"/>
    </edge>
    <edge id=":J4_5" function="internal">
        <lane id=":J4_5_0" index="0" speed="6.50" length="9.03" shape="6.80,7.80 4.34,8.14 2.59,9.19 1.55,10.94 1.20,13.39"/>
    </edge>
    <edge id=":J4_6" function="internal">
        <lane id=":J4_6_0" index="0" speed="13.89" length="27.26" shape="6.80,7.80 -20.45,7.80"/>
        <lane id=":J4_6_1" index="1" speed="13.89" length="27.26" shape="6.80,4.60 -20.46,4.60"/>
        <lane id=":J4_6_2" index="2" speed="13.89" length="27.26" shape="6.81,1.40 -20.46,1.40"/>
    </edge>
    <edge id=":J4_9" function="internal">
        <lane id=":J4_9_0" index="0" speed="10.42" length="4.94" shape="6.81,1.40 1.92,0.69"/>
    </edge>
    <edge id=":J4_21" function="internal">
        <lane id=":J4_21_0" index="0" speed="10.42" length="19.68" shape="1.92,0.69 0.14,0.43 -4.63,-2.43 -7.52,-7.20 -8.52,-13.87"/>
    </edge>
    <edge id=":J4_10" function="internal">
        <lane id=":J4_10_0" index="0" speed="6.60" length="9.24" shape="1.08,-13.94 1.45,-11.43 2.54,-9.64 4.33,-8.57 6.83,-8.20"/>
    </edge>
    <edge id=":J4_11" function="internal">
        <lane id=":J4_11_0" index="0" speed="13.89" length="27.31" shape="1.08,-13.94 1.20,13.39"/>
        <lane id=":J4_11_1" index="1" speed="13.89" length="27.31" shape="-2.12,-13.91 -2.00,13.40"/>
        <lane id=":J4_11_2" index="2" speed="13.89" length="27.31" shape="-5.32,-13.89 -5.20,13.40"/>
    </edge>
    <edge id=":J4_14" function="internal">
        <lane id=":J4_14_0" index="0" speed="10.36" length="5.12" shape="-5.32,-13.89 -6.01,-8.82"/>
    </edge>
    <edge id=":J4_22" function="internal">
        <lane id=":J4_22_0" index="0" speed="10.36" length="19.45" shape="-6.01,-8.82 -6.23,-7.21 -9.05,-2.44 -13.80,0.43 -20.46,1.40"/>
    </edge>
    <edge id=":J4_15" function="internal">
        <lane id=":J4_15_0" index="0" speed="6.50" length="9.03" shape="-20.49,-8.20 -18.04,-8.55 -16.29,-9.61 -15.26,-11.36 -14.92,-13.82"/>
    </edge>
    <edge id=":J4_16" function="internal">
        <lane id=":J4_16_0" index="0" speed="13.89" length="27.30" shape="-20.49,-8.20 6.83,-8.20"/>
        <lane id=":J4_16_1" index="1" speed="13.89" length="27.30" shape="-20.48,-5.00 6.82,-5.00"/>
        <lane id=":J4_16_2" index="2" speed="13.89" length="27.30" shape="-20.47,-1.80 6.82,-1.80"/>
    </edge>
    <edge id=":J4_19" function="internal">
        <lane id=":J4_19_0" index="0" speed="10.37" length="5.10" shape="-20.47,-1.80 -15.43,-1.09"/>
    </edge>
    <edge id=":J4_23" function="internal">
        <lane id=":J4_23_0" index="0" speed="10.37" length="19.48" shape="-15.43,-1.09 -13.80,-0.86 -9.03,1.98 -6.16,6.74 -5.20,13.40"/>
    </edge>

    <edge id="-E4" from="J5" to="J4" priority="-1">
        <lane id="-E4_0" index="0" speed="13.89" length="21.68" shape="-14.77,35.09 -14.80,13.41"/>
        <lane id="-E4_1" index="1" speed="13.89" length="21.68" shape="-11.57,35.09 -11.60,13.41"/>
        <lane id="-E4_2" index="2" speed="13.89" length="21.68" shape="-8.37,35.08 -8.40,13.40"/>
    </edge>
    <edge id="-E5" from="J6" to="J4" priority="-1">
        <lane id="-E5_0" index="0" speed="13.89" length="42.45" shape="49.24,7.88 6.80,7.80"/>
        <lane id="-E5_1" index="1" speed="13.89" length="42.45" shape="49.25,4.68 6.80,4.60"/>
        <lane id="-E5_2" index="2" speed="13.89" length="42.45" shape="49.26,1.48 6.81,1.40"/>
    </edge>
    <edge id="-E6" from="J7" to="J4" priority="-1">
        <lane id="-E6_0" index="0" speed="13.89" length="25.70" shape="0.88,-39.64 1.08,-13.94"/>
        <lane id="-E6_1" index="1" speed="13.89" length="25.70" shape="-2.32,-39.62 -2.12,-13.91"/>
        <lane id="-E6_2" index="2" speed="13.89" length="25.70" shape="-5.52,-39.59 -5.32,-13.89"/>
    </edge>
    <edge id="-E7" from="J8" to="J4" priority="-1">
        <lane id="-E7_0" index="0" speed="13.89" length="29.41" shape="-49.90,-8.12 -20.49,-8.20"/>
        <lane id="-E7_1" index="1" speed="13.89" length="29.41" shape="-49.89,-4.92 -20.48,-5.00"/>
        <lane id="-E7_2" index="2" speed="13.89" length="29.41" shape="-49.88,-1.72 -20.47,-1.80"/>
    </edge>
    <edge id="E4" from="J4" to="J5" priority="-1">
        <lane id="E4_0" index="0" speed="13.89" length="21.68" shape="1.20,13.39 1.23,35.07"/>
        <lane id="E4_1" index="1" speed="13.89" length="21.68" shape="-2.00,13.40 -1.97,35.07"/>
        <lane id="E4_2" index="2" speed="13.89" length="21.68" shape="-5.20,13.40 -5.17,35.08"/>
    </edge>
    <edge id="E5" from="J4" to="J6" priority="-1">
        <lane id="E5_0" index="0" speed="13.89" length="42.45" shape="6.83,-8.20 49.28,-8.12"/>
        <lane id="E5_1" index="1" speed="13.89" length="42.45" shape="6.82,-5.00 49.27,-4.92"/>
        <lane id="E5_2" index="2" speed="13.89" length="42.45" shape="6.82,-1.80 49.26,-1.72"/>
    </edge>
    <edge id="E6" from="J4" to="J7" priority="-1">
        <lane id="E6_0" index="0" speed="13.89" length="25.70" shape="-14.92,-13.82 -15.12,-39.52"/>
        <lane id="E6_1" index="1" speed="13.89" length="25.70" shape="-11.72,-13.84 -11.92,-39.54"/>
        <lane id="E6_2" index="2" speed="13.89" length="25.70" shape="-8.52,-13.87 -8.72,-39.57"/>
    </edge>
    <edge id="E7" from="J4" to="J8" priority="-1">
        <lane id="E7_0" index="0" speed="13.89" length="29.41" shape="-20.45,7.80 -49.86,7.88"/>
        <lane id="E7_1" index="1" speed="13.89" length="29.41" shape="-20.46,4.60 -49.87,4.68"/>
        <lane id="E7_2" index="2" speed="13.89" length="29.41" shape="-20.46,1.40 -49.88,1.48"/>
    </edge>

    <tlLogic id="J4" type="static" programID="0" offset="0">
        <phase duration="42" state="rrrrrGGGGgrrrrrGGGGg"/>
        <phase duration="3"  state="rrrrryyyyyrrrrryyyyy"/>
        <phase duration="42" state="GGGGgrrrrrGGGGgrrrrr"/>
        <phase duration="3"  state="yyyyyrrrrryyyyyrrrrr"/>
    </tlLogic>

    <junction id="J4" type="traffic_light" x="-6.82" y="-0.23" incLanes="-E4_0 -E4_1 -E4_2 -E5_0 -E5_1 -E5_2 -E6_0 -E6_1 -E6_2 -E7_0 -E7_1 -E7_2" intLanes=":J4_0_0 :J4_1_0 :J4_1_1 :J4_1_2 :J4_20_0 :J4_5_0 :J4_6_0 :J4_6_1 :J4_6_2 :J4_21_0 :J4_10_0 :J4_11_0 :J4_11_1 :J4_11_2 :J4_22_0 :J4_15_0 :J4_16_0 :J4_16_1 :J4_16_2 :J4_23_0" shape="-16.40,13.42 2.80,13.39 3.24,11.17 3.80,10.39 4.57,9.84 5.57,9.51 6.79,9.40 6.83,-9.80 4.54,-10.27 3.73,-10.84 3.15,-11.65 2.80,-12.69 2.68,-13.95 -16.52,-13.81 -16.95,-11.58 -17.50,-10.80 -18.27,-10.25 -19.27,-9.91 -20.49,-9.80 -20.44,9.40 -18.20,9.85 -17.41,10.40 -16.85,11.18 -16.51,12.19">
        <request index="0"  response="00000000000111000000" foes="00000000000111000000" cont="0"/>
        <request index="1"  response="11111000001111000000" foes="11111100001111000000" cont="0"/>
        <request index="2"  response="11111000001111000000" foes="11111100001111000000" cont="0"/>
        <request index="3"  response="11111000001111000000" foes="11111100001111000000" cont="0"/>
        <request index="4"  response="11110011101111000000" foes="11110011101111000000" cont="1"/>
        <request index="5"  response="00000000000000000000" foes="00000011100000000000" cont="0"/>
        <request index="6"  response="00000000000000010000" foes="10000111100000011111" cont="0"/>
        <request index="7"  response="00000000000000010000" foes="10000111100000011111" cont="0"/>
        <request index="8"  response="00000100000000010000" foes="10000111100000011111" cont="0"/>
        <request index="9"  response="01110100000000010000" foes="01110111100000011110" cont="1"/>
        <request index="10" response="01110000000000000000" foes="01110000000000000000" cont="0"/>
        <request index="11" response="11110000001111100000" foes="11110000001111110000" cont="0"/>
        <request index="12" response="11110000001111100000" foes="11110000001111110000" cont="0"/>
        <request index="13" response="11110000001111100000" foes="11110000001111110000" cont="0"/>
        <request index="14" response="11110000001111001110" foes="11110000001111001110" cont="1"/>
        <request index="15" response="00000000000000000000" foes="00000000000000001110" cont="0"/>
        <request index="16" response="00000100000000000000" foes="00000111111000011110" cont="0"/>
        <request index="17" response="00000100000000000000" foes="00000111111000011110" cont="0"/>
        <request index="18" response="00000100000000010000" foes="00000111111000011110" cont="0"/>
        <request index="19" response="00000100000111010000" foes="00000111100111011110" cont="1"/>
    </junction>
    <junction id="J5" type="dead_end" x="-6.77" y="35.08" incLanes="E4_0 E4_1 E4_2" intLanes="" shape="-6.77,35.08 2.83,35.07 -6.77,35.08"/>
    <junction id="J6" type="dead_end" x="49.26" y="-0.12" incLanes="E5_0 E5_1 E5_2" intLanes="" shape="49.26,-0.12 49.28,-9.72 49.26,-0.12"/>
    <junction id="J7" type="dead_end" x="-7.12" y="-39.58" incLanes="E6_0 E6_1 E6_2" intLanes="" shape="-7.12,-39.58 -16.72,-39.51 -7.12,-39.58"/>
    <junction id="J8" type="dead_end" x="-49.88" y="-0.12" incLanes="E7_0 E7_1 E7_2" intLanes="" shape="-49.88,-0.12 -49.86,9.48 -49.88,-0.12"/>

    <junction id=":J4_20_0" type="internal" x="-7.71" y="8.55" incLanes=":J4_4_0 -E6_0 -E6_1 -E6_2" intLanes=":J4_6_0 :J4_6_1 :J4_6_2 :J4_9_0 :J4_10_0 :J4_11_0 :J4_11_1 :J4_11_2 :J4_16_0 :J4_16_1 :J4_16_2 :J4_19_0"/>
    <junction id=":J4_21_0" type="internal" x="1.92" y="0.69" incLanes=":J4_9_0 -E7_0 -E7_1 -E7_2" intLanes=":J4_1_0 :J4_1_1 :J4_1_2 :J4_4_0 :J4_11_0 :J4_11_1 :J4_11_2 :J4_14_0 :J4_15_0 :J4_16_0 :J4_16_1 :J4_16_2"/>
    <junction id=":J4_22_0" type="internal" x="-6.01" y="-8.82" incLanes=":J4_14_0 -E4_0 -E4_1 -E4_2" intLanes=":J4_0_0 :J4_1_0 :J4_1_1 :J4_1_2 :J4_6_0 :J4_6_1 :J4_6_2 :J4_9_0 :J4_16_0 :J4_16_1 :J4_16_2 :J4_19_0"/>
    <junction id=":J4_23_0" type="internal" x="-15.43" y="-1.09" incLanes=":J4_19_0 -E5_0 -E5_1 -E5_2" intLanes=":J4_1_0 :J4_1_1 :J4_1_2 :J4_4_0 :J4_5_0 :J4_6_0 :J4_6_1 :J4_6_2 :J4_11_0 :J4_11_1 :J4_11_2 :J4_14_0"/>

    <connection from="-E4" to="E7" fromLane="0" toLane="0" via=":J4_0_0" tl="J4" linkIndex="0" dir="r" state="o"/>
    <connection from="-E4" to="E6" fromLane="0" toLane="0" via=":J4_1_0" tl="J4" linkIndex="1" dir="s" state="o"/>
    <connection from="-E4" to="E6" fromLane="1" toLane="1" via=":J4_1_1" tl="J4" linkIndex="2" dir="s" state="o"/>
    <connection from="-E4" to="E6" fromLane="2" toLane="2" via=":J4_1_2" tl="J4" linkIndex="3" dir="s" state="o"/>
    <connection from="-E4" to="E5" fromLane="2" toLane="2" via=":J4_4_0" tl="J4" linkIndex="4" dir="l" state="o"/>
    <connection from="-E5" to="E4" fromLane="0" toLane="0" via=":J4_5_0" tl="J4" linkIndex="5" dir="r" state="O"/>
    <connection from="-E5" to="E7" fromLane="0" toLane="0" via=":J4_6_0" tl="J4" linkIndex="6" dir="s" state="O"/>
    <connection from="-E5" to="E7" fromLane="1" toLane="1" via=":J4_6_1" tl="J4" linkIndex="7" dir="s" state="O"/>
    <connection from="-E5" to="E7" fromLane="2" toLane="2" via=":J4_6_2" tl="J4" linkIndex="8" dir="s" state="O"/>
    <connection from="-E5" to="E6" fromLane="2" toLane="2" via=":J4_9_0" tl="J4" linkIndex="9" dir="l" state="o"/>
    <connection from="-E6" to="E5" fromLane="0" toLane="0" via=":J4_10_0" tl="J4" linkIndex="10" dir="r" state="o"/>
    <connection from="-E6" to="E4" fromLane="0" toLane="0" via=":J4_11_0" tl="J4" linkIndex="11" dir="s" state="o"/>
    <connection from="-E6" to="E4" fromLane="1" toLane="1" via=":J4_11_1" tl="J4" linkIndex="12" dir="s" state="o"/>
    <connection from="-E6" to="E4" fromLane="2" toLane="2" via=":J4_11_2" tl="J4" linkIndex="13" dir="s" state="o"/>
    <connection from="-E6" to="E7" fromLane="2" toLane="2" via=":J4_14_0" tl="J4" linkIndex="14" dir="l" state="o"/>
    <connection from="-E7" to="E6" fromLane="0" toLane="0" via=":J4_15_0" tl="J4" linkIndex="15" dir="r" state="O"/>
    <connection from="-E7" to="E5" fromLane="0" toLane="0" via=":J4_16_0" tl="J4" linkIndex="16" dir="s" state="O"/>
    <connection from="-E7" to="E5" fromLane="1" toLane="1" via=":J4_16_1" tl="J4" linkIndex="17" dir="s" state="O"/>
    <connection from="-E7" to="E5" fromLane="2" toLane="2" via=":J4_16_2" tl="J4" linkIndex="18" dir="s" state="O"/>
    <connection from="-E7" to="E4" fromLane="2" toLane="2" via=":J4_19_0" tl="J4" linkIndex="19" dir="l" state="o"/>

    <connection from=":J4_0" to="E7" fromLane="0" toLane="0" dir="r" state="M"/>
    <connection from=":J4_1" to="E6" fromLane="0" toLane="0" dir="s" state="M"/>
    <connection from=":J4_1" to="E6" fromLane="1" toLane="1" dir="s" state="M"/>
    <connection from=":J4_1" to="E6" fromLane="2" toLane="2" dir="s" state="M"/>
    <connection from=":J4_4" to="E5" fromLane="0" toLane="2" via=":J4_20_0" dir="l" state="m"/>
    <connection from=":J4_20" to="E5" fromLane="0" toLane="2" dir="l" state="M"/>
    <connection from=":J4_5" to="E4" fromLane="0" toLane="0" dir="r" state="M"/>
    <connection from=":J4_6" to="E7" fromLane="0" toLane="0" dir="s" state="M"/>
    <connection from=":J4_6" to="E7" fromLane="1" toLane="1" dir="s" state="M"/>
    <connection from=":J4_6" to="E7" fromLane="2" toLane="2" dir="s" state="M"/>
    <connection from=":J4_9" to="E6" fromLane="0" toLane="2" via=":J4_21_0" dir="l" state="m"/>
    <connection from=":J4_21" to="E6" fromLane="0" toLane="2" dir="l" state="M"/>
    <connection from=":J4_10" to="E5" fromLane="0" toLane="0" dir="r" state="M"/>
    <connection from=":J4_11" to="E4" fromLane="0" toLane="0" dir="s" state="M"/>
    <connection from=":J4_11" to="E4" fromLane="1" toLane="1" dir="s" state="M"/>
    <connection from=":J4_11" to="E4" fromLane="2" toLane="2" dir="s" state="M"/>
    <connection from=":J4_14" to="E7" fromLane="0" toLane="2" via=":J4_22_0" dir="l" state="m"/>
    <connection from=":J4_22" to="E7" fromLane="0" toLane="2" dir="l" state="M"/>
    <connection from=":J4_15" to="E6" fromLane="0" toLane="0" dir="r" state="M"/>
    <connection from=":J4_16" to="E5" fromLane="0" toLane="0" dir="s" state="M"/>
    <connection from=":J4_16" to="E5" fromLane="1" toLane="1" dir="s" state="M"/>
    <connection from=":J4_16" to="E5" fromLane="2" toLane="2" dir="s" state="M"/>
    <connection from=":J4_19" to="E4" fromLane="0" toLane="2" via=":J4_23_0" dir="l" state="m"/>
    <connection from=":J4_23" to="E4" fromLane="0" toLane="2" dir="l" state="M"/>

</net>
